!-Generator IDFEditor 1.51
!-Option SortedOrder

!-NOTE: All comments with '!-' are ignored by the IDFEditor and are generated automatically.
!-      Use '!' comments if they need to be retained when using the IDFEditor.


!-   ===========  ALL OBJECTS IN CLASS: VERSION ===========

Version,
    9.5;                     !- Version Identifier


!-   ===========  ALL OBJECTS IN CLASS: SIMULATIONCONTROL ===========

SimulationControl,
    No,                      !- Do Zone Sizing Calculation
    No,                      !- Do System Sizing Calculation
    No,                      !- Do Plant Sizing Calculation
    No,                      !- Run Simulation for Sizing Periods
    Yes,                     !- Run Simulation for Weather File Run Periods
    No,                      !- Do HVAC Sizing Simulation for Sizing Periods
    1;                       !- Maximum Number of HVAC Sizing Simulation Passes


!-   ===========  ALL OBJECTS IN CLASS: BUILDING ===========

Building,
    IDM,                     !- Name
    -15,                     !- North Axis {deg}
    Suburbs,                 !- Terrain
    0.04,                    !- Loads Convergence Tolerance Value {W}
    0.4,                     !- Temperature Convergence Tolerance Value {deltaC}
    FullInteriorAndExterior, !- Solar Distribution
    25,                      !- Maximum Number of Warmup Days
    6;                       !- Minimum Number of Warmup Days


!-   ===========  ALL OBJECTS IN CLASS: SURFACECONVECTIONALGORITHM:INSIDE ===========

SurfaceConvectionAlgorithm:Inside,
    TARP;                    !- Algorithm


!-   ===========  ALL OBJECTS IN CLASS: SURFACECONVECTIONALGORITHM:OUTSIDE ===========

SurfaceConvectionAlgorithm:Outside,
    TARP;                    !- Algorithm


!-   ===========  ALL OBJECTS IN CLASS: TIMESTEP ===========

Timestep,
    12;                      !- Number of Timesteps per Hour


!-   ===========  ALL OBJECTS IN CLASS: SITE:LOCATION ===========

Site:Location,
    Bourget_du_Lac,          !- Name
    45.65,                   !- Latitude {deg}
    5.88,                    !- Longitude {deg}
    1.0,                     !- Time Zone {hr}
    239;                     !- Elevation {m}


!-   ===========  ALL OBJECTS IN CLASS: RUNPERIOD ===========

RunPeriod,
    Annee,                   !- Name
    1,                       !- Begin Month
    1,                       !- Begin Day of Month
    ,                        !- Begin Year
    12,                      !- End Month
    31,                      !- End Day of Month
    ,                        !- End Year
    ,                        !- Day of Week for Start Day
    Yes,                     !- Use Weather File Holidays and Special Days
    Yes,                     !- Use Weather File Daylight Saving Period
    No,                      !- Apply Weekend Holiday Rule
    Yes,                     !- Use Weather File Rain Indicators
    Yes;                     !- Use Weather File Snow Indicators
! 
! 
!-   ===========  ALL OBJECTS IN CLASS: SITE:GROUNDTEMPERATURE:BUILDINGSURFACE ===========
! 
! Site:GroundTemperature:BuildingSurface,
!     4.5,                     !- January Ground Temperature {C}
!     6.21,                    !- February Ground Temperature {C}
!     9.3,                     !- March Ground Temperature {C}
!     12.99,                   !- April Ground Temperature {C}
!     16.28,                   !- May Ground Temperature {C}
!     18.27,                   !- June Ground Temperature {C}
!     18.43,                   !- July Ground Temperature {C}
!     16.69,                   !- August Ground Temperature {C}
!     13.55,                   !- September Ground Temperature {C}
!     9.86,                    !- October Ground Temperature {C}
!     6.58,                    !- November Ground Temperature {C}
!     4.62;                    !- December Ground Temperature {C}


!-   ===========  ALL OBJECTS IN CLASS: SITE:GROUNDREFLECTANCE ===========

!
!
!
! Site:GroundTemperature:BuildingSurface,
!     4.5,                     !- January Ground Temperature {C}
!     6.21,                    !- February Ground Temperature {C}
!     9.3,                     !- March Ground Temperature {C}
!     12.99,                   !- April Ground Temperature {C}
!     16.28,                   !- May Ground Temperature {C}
!     18.27,                   !- June Ground Temperature {C}
!     18.43,                   !- July Ground Temperature {C}
!     16.69,                   !- August Ground Temperature {C}
!     13.55,                   !- September Ground Temperature {C}
!     9.86,                    !- October Ground Temperature {C}
!     6.58,                    !- November Ground Temperature {C}
!     4.62;                    !- December Ground Temperature {C}
Site:GroundReflectance,
    0.4,                     !- January Ground Reflectance {dimensionless}
    0.4,                     !- February Ground Reflectance {dimensionless}
    0.4,                     !- March Ground Reflectance {dimensionless}
    0.4,                     !- April Ground Reflectance {dimensionless}
    0.4,                     !- May Ground Reflectance {dimensionless}
    0.4,                     !- June Ground Reflectance {dimensionless}
    0.4,                     !- July Ground Reflectance {dimensionless}
    0.4,                     !- August Ground Reflectance {dimensionless}
    0.4,                     !- September Ground Reflectance {dimensionless}
    0.4,                     !- October Ground Reflectance {dimensionless}
    0.4,                     !- November Ground Reflectance {dimensionless}
    0.4;                     !- December Ground Reflectance {dimensionless}


!-   ===========  ALL OBJECTS IN CLASS: SCHEDULETYPELIMITS ===========

ScheduleTypeLimits,
    Any Number;              !- Name


!-   ===========  ALL OBJECTS IN CLASS: SCHEDULE:DAY:INTERVAL ===========

Schedule:Day:Interval,
    Volets_RDC_sem,          !- Name
    Any Number,              !- Schedule Type Limits Name
    No,                      !- Interpolate to Timestep
    8:00,                    !- Time 1 {hh:mm}
    1,                       !- Value Until Time 1
    9:00,                    !- Time 2 {hh:mm}
    0,                       !- Value Until Time 2
    13:00,                   !- Time 3 {hh:mm}
    1,                       !- Value Until Time 3
    14:00,                   !- Time 4 {hh:mm}
    0,                       !- Value Until Time 4
    17:00,                   !- Time 5 {hh:mm}
    1,                       !- Value Until Time 5
    22:00,                   !- Time 6 {hh:mm}
    0,                       !- Value Until Time 6
    24:00,                   !- Time 7 {hh:mm}
    1;                       !- Value Until Time 7

Schedule:Day:Interval,
    Volets_RDC_we,           !- Name
    Any Number,              !- Schedule Type Limits Name
    No,                      !- Interpolate to Timestep
    8:00,                    !- Time 1 {hh:mm}
    1,                       !- Value Until Time 1
    14:00,                   !- Time 2 {hh:mm}
    0,                       !- Value Until Time 2
    17:00,                   !- Time 3 {hh:mm}
    1,                       !- Value Until Time 3
    22:00,                   !- Time 4 {hh:mm}
    0,                       !- Value Until Time 4
    24:00,                   !- Time 5 {hh:mm}
    1;                       !- Value Until Time 5

Schedule:Day:Interval,
    RDC_Eclairage_cuisine_Sem,  !- Name
    Any Number,              !- Schedule Type Limits Name
    No,                      !- Interpolate to Timestep
    7:00,                    !- Time 1 {hh:mm}
    0,                       !- Value Until Time 1
    8:00,                    !- Time 2 {hh:mm}
    1,                       !- Value Until Time 2
    20:00,                   !- Time 3 {hh:mm}
    0,                       !- Value Until Time 3
    21:00,                   !- Time 4 {hh:mm}
    1,                       !- Value Until Time 4
    24:00,                   !- Time 5 {hh:mm}
    0;                       !- Value Until Time 5

Schedule:Day:Interval,
    RDC_equipt_wkd,          !- Name
    Any Number,              !- Schedule Type Limits Name
    No,                      !- Interpolate to Timestep
    09:00,                   !- Time 1 {hh:mm}
    50,                      !- Value Until Time 1
    10:00,                   !- Time 2 {hh:mm}
    550,                     !- Value Until Time 2
    13:00,                   !- Time 3 {hh:mm}
    150,                     !- Value Until Time 3
    14:00,                   !- Time 4 {hh:mm}
    1050,                    !- Value Until Time 4
    18:00,                   !- Time 5 {hh:mm}
    150,                     !- Value Until Time 5
    20:00,                   !- Time 6 {hh:mm}
    150,                     !- Value Until Time 6
    21:00,                   !- Time 7 {hh:mm}
    1050,                    !- Value Until Time 7
    22:00,                   !- Time 8 {hh:mm}
    400,                     !- Value Until Time 8
    23:00,                   !- Time 9 {hh:mm}
    150,                     !- Value Until Time 9
    24:00,                   !- Time 10 {hh:mm}
    50;                      !- Value Until Time 10

Schedule:Day:Interval,
    RDC_equipt_sem,          !- Name
    Any Number,              !- Schedule Type Limits Name
    No,                      !- Interpolate to Timestep
    07:00,                   !- Time 1 {hh:mm}
    50,                      !- Value Until Time 1
    08:00,                   !- Time 2 {hh:mm}
    550,                     !- Value Until Time 2
    13:00,                   !- Time 3 {hh:mm}
    50,                      !- Value Until Time 3
    14:00,                   !- Time 4 {hh:mm}
    1050,                    !- Value Until Time 4
    18:00,                   !- Time 5 {hh:mm}
    50,                      !- Value Until Time 5
    20:00,                   !- Time 6 {hh:mm}
    150,                     !- Value Until Time 6
    21:00,                   !- Time 7 {hh:mm}
    1050,                    !- Value Until Time 7
    22:00,                   !- Time 8 {hh:mm}
    400,                     !- Value Until Time 8
    23:00,                   !- Time 9 {hh:mm}
    150,                     !- Value Until Time 9
    24:00,                   !- Time 10 {hh:mm}
    50;                      !- Value Until Time 10

Schedule:Day:Interval,
    RDC_occ_sem,             !- Name
    Any Number,              !- Schedule Type Limits Name
    No,                      !- Interpolate to Timestep
    07:00,                   !- Time 1 {hh:mm}
    0,                       !- Value Until Time 1
    08:00,                   !- Time 2 {hh:mm}
    3,                       !- Value Until Time 2
    13:00,                   !- Time 3 {hh:mm}
    0,                       !- Value Until Time 3
    14:00,                   !- Time 4 {hh:mm}
    2,                       !- Value Until Time 4
    18:00,                   !- Time 5 {hh:mm}
    0,                       !- Value Until Time 5
    19:00,                   !- Time 6 {hh:mm}
    2,                       !- Value Until Time 6
    23:00,                   !- Time 7 {hh:mm}
    4,                       !- Value Until Time 7
    24:00,                   !- Time 8 {hh:mm}
    0;                       !- Value Until Time 8

Schedule:Day:Interval,
    RDC_occ_wkd,             !- Name
    Any Number,              !- Schedule Type Limits Name
    No,                      !- Interpolate to Timestep
    09:00,                   !- Time 1 {hh:mm}
    0,                       !- Value Until Time 1
    10:00,                   !- Time 2 {hh:mm}
    3,                       !- Value Until Time 2
    13:00,                   !- Time 3 {hh:mm}
    2,                       !- Value Until Time 3
    14:00,                   !- Time 4 {hh:mm}
    4,                       !- Value Until Time 4
    18:00,                   !- Time 5 {hh:mm}
    2,                       !- Value Until Time 5
    23:00,                   !- Time 6 {hh:mm}
    4,                       !- Value Until Time 6
    24:00,                   !- Time 7 {hh:mm}
    0;                       !- Value Until Time 7

Schedule:Day:Interval,
    Ch1_Eclairage_Sem,       !- Name
    Any Number,              !- Schedule Type Limits Name
    No,                      !- Interpolate to Timestep
    6:00,                    !- Time 1 {hh:mm}
    0,                       !- Value Until Time 1
    7:00,                    !- Time 2 {hh:mm}
    1,                       !- Value Until Time 2
    22:00,                   !- Time 3 {hh:mm}
    0,                       !- Value Until Time 3
    23:00,                   !- Time 4 {hh:mm}
    1,                       !- Value Until Time 4
    24:00,                   !- Time 5 {hh:mm}
    0;                       !- Value Until Time 5

Schedule:Day:Interval,
    Ch1_Eclairage_wkd,       !- Name
    Any Number,              !- Schedule Type Limits Name
    No,                      !- Interpolate to Timestep
    22:00,                   !- Time 1 {hh:mm}
    0,                       !- Value Until Time 1
    23:00,                   !- Time 2 {hh:mm}
    1,                       !- Value Until Time 2
    24:00,                   !- Time 3 {hh:mm}
    0;                       !- Value Until Time 3

Schedule:Day:Interval,
    Sdb_Eclairage_Sem,       !- Name
    Any Number,              !- Schedule Type Limits Name
    No,                      !- Interpolate to Timestep
    7:00,                    !- Time 1 {hh:mm}
    0,                       !- Value Until Time 1
    8:00,                    !- Time 2 {hh:mm}
    1,                       !- Value Until Time 2
    24:00,                   !- Time 3 {hh:mm}
    0;                       !- Value Until Time 3

Schedule:Day:Interval,
    Sdb_Equipement_Sem_wkd,  !- Name
    Any Number,              !- Schedule Type Limits Name
    No,                      !- Interpolate to Timestep
    20:00,                   !- Time 1 {hh:mm}
    0,                       !- Value Until Time 1
    21:00,                   !- Time 2 {hh:mm}
    650,                     !- Value Until Time 2
    24:00,                   !- Time 3 {hh:mm}
    0;                       !- Value Until Time 3

Schedule:Day:Interval,
    Sdb_Eclairage_wkd,       !- Name
    Any Number,              !- Schedule Type Limits Name
    No,                      !- Interpolate to Timestep
    9:00,                    !- Time 1 {hh:mm}
    0,                       !- Value Until Time 1
    10:00,                   !- Time 2 {hh:mm}
    1,                       !- Value Until Time 2
    24:00,                   !- Time 3 {hh:mm}
    0;                       !- Value Until Time 3

Schedule:Day:Interval,
    VoletR_sem_hiver,        !- Name
    Any Number,              !- Schedule Type Limits Name
    No,                      !- Interpolate to Timestep
    07:00,                   !- Time 1 {hh:mm}
    1,                       !- Value Until Time 1
    21:00,                   !- Time 2 {hh:mm}
    0,                       !- Value Until Time 2
    24:00,                   !- Time 3 {hh:mm}
    1;                       !- Value Until Time 3

Schedule:Day:Interval,
    VoletR_wkd_hiver,        !- Name
    Any Number,              !- Schedule Type Limits Name
    No,                      !- Interpolate to Timestep
    09:00,                   !- Time 1 {hh:mm}
    1,                       !- Value Until Time 1
    21:00,                   !- Time 2 {hh:mm}
    0,                       !- Value Until Time 2
    24:00,                   !- Time 3 {hh:mm}
    1;                       !- Value Until Time 3

Schedule:Day:Interval,
    Ch1_occ_sem,             !- Name
    Any Number,              !- Schedule Type Limits Name
    No,                      !- Interpolate to Timestep
    07:00,                   !- Time 1 {hh:mm}
    2,                       !- Value Until Time 1
    23:00,                   !- Time 2 {hh:mm}
    0,                       !- Value Until Time 2
    24:00,                   !- Time 3 {hh:mm}
    2;                       !- Value Until Time 3

Schedule:Day:Interval,
    Ch1_occ_wkd,             !- Name
    Any Number,              !- Schedule Type Limits Name
    No,                      !- Interpolate to Timestep
    09:00,                   !- Time 1 {hh:mm}
    2,                       !- Value Until Time 1
    23:00,                   !- Time 2 {hh:mm}
    0,                       !- Value Until Time 2
    24:00,                   !- Time 3 {hh:mm}
    2;                       !- Value Until Time 3

Schedule:Day:Interval,
    Sdb_occ_sem,             !- Name
    Any Number,              !- Schedule Type Limits Name
    No,                      !- Interpolate to Timestep
    07:00,                   !- Time 1 {hh:mm}
    0,                       !- Value Until Time 1
    8:00,                    !- Time 2 {hh:mm}
    1,                       !- Value Until Time 2
    24:00,                   !- Time 3 {hh:mm}
    0;                       !- Value Until Time 3

Schedule:Day:Interval,
    Sdb_occ_wkd,             !- Name
    Any Number,              !- Schedule Type Limits Name
    No,                      !- Interpolate to Timestep
    09:00,                   !- Time 1 {hh:mm}
    0,                       !- Value Until Time 1
    10:00,                   !- Time 2 {hh:mm}
    1,                       !- Value Until Time 2
    24:00,                   !- Time 3 {hh:mm}
    0;                       !- Value Until Time 3

Schedule:Day:Interval,
    Ch1_chauffage_Sem,       !- Name
    Any Number,              !- Schedule Type Limits Name
    No,                      !- Interpolate to Timestep
    6:00,                    !- Time 1 {hh:mm}
    18,                      !- Value Until Time 1
    7:00,                    !- Time 2 {hh:mm}
    21,                      !- Value Until Time 2
    22:00,                   !- Time 3 {hh:mm}
    15,                      !- Value Until Time 3
    23:00,                   !- Time 4 {hh:mm}
    21,                      !- Value Until Time 4
    24:00,                   !- Time 5 {hh:mm}
    18;                      !- Value Until Time 5

Schedule:Day:Interval,
    Ch1_chauffage_wkd,       !- Name
    Any Number,              !- Schedule Type Limits Name
    No,                      !- Interpolate to Timestep
    8:00,                    !- Time 1 {hh:mm}
    18,                      !- Value Until Time 1
    9:00,                    !- Time 2 {hh:mm}
    21,                      !- Value Until Time 2
    23:00,                   !- Time 3 {hh:mm}
    15,                      !- Value Until Time 3
    24:00,                   !- Time 4 {hh:mm}
    21;                      !- Value Until Time 4

Schedule:Day:Interval,
    RDC_chauff_sem,          !- Name
    Any Number,              !- Schedule Type Limits Name
    No,                      !- Interpolate to Timestep
    07:00,                   !- Time 1 {hh:mm}
    15,                      !- Value Until Time 1
    08:00,                   !- Time 2 {hh:mm}
    19,                      !- Value Until Time 2
    13:00,                   !- Time 3 {hh:mm}
    15,                      !- Value Until Time 3
    14:00,                   !- Time 4 {hh:mm}
    19,                      !- Value Until Time 4
    18:00,                   !- Time 5 {hh:mm}
    15,                      !- Value Until Time 5
    19:00,                   !- Time 6 {hh:mm}
    19,                      !- Value Until Time 6
    23:00,                   !- Time 7 {hh:mm}
    19,                      !- Value Until Time 7
    24:00,                   !- Time 8 {hh:mm}
    15;                      !- Value Until Time 8

Schedule:Day:Interval,
    RDC_Chauff_wkd,          !- Name
    Any Number,              !- Schedule Type Limits Name
    No,                      !- Interpolate to Timestep
    09:00,                   !- Time 1 {hh:mm}
    15,                      !- Value Until Time 1
    10:00,                   !- Time 2 {hh:mm}
    19,                      !- Value Until Time 2
    13:00,                   !- Time 3 {hh:mm}
    19,                      !- Value Until Time 3
    14:00,                   !- Time 4 {hh:mm}
    19,                      !- Value Until Time 4
    18:00,                   !- Time 5 {hh:mm}
    19,                      !- Value Until Time 5
    23:00,                   !- Time 6 {hh:mm}
    19,                      !- Value Until Time 6
    24:00,                   !- Time 7 {hh:mm}
    15;                      !- Value Until Time 7

Schedule:Day:Interval,
    Sdb_Chauff_sem,          !- Name
    Any Number,              !- Schedule Type Limits Name
    No,                      !- Interpolate to Timestep
    07:00,                   !- Time 1 {hh:mm}
    15,                      !- Value Until Time 1
    8:00,                    !- Time 2 {hh:mm}
    19,                      !- Value Until Time 2
    24:00,                   !- Time 3 {hh:mm}
    15;                      !- Value Until Time 3

Schedule:Day:Interval,
    Sdb_Chauff_wkd,          !- Name
    Any Number,              !- Schedule Type Limits Name
    No,                      !- Interpolate to Timestep
    09:00,                   !- Time 1 {hh:mm}
    15,                      !- Value Until Time 1
    10:00,                   !- Time 2 {hh:mm}
    19,                      !- Value Until Time 2
    24:00,                   !- Time 3 {hh:mm}
    15;                      !- Value Until Time 3

Schedule:Day:Interval,
    Ch2_occ_sem,             !- Name
    Any Number,              !- Schedule Type Limits Name
    No,                      !- Interpolate to Timestep
    07:00,                   !- Time 1 {hh:mm}
    1,                       !- Value Until Time 1
    23:00,                   !- Time 2 {hh:mm}
    0,                       !- Value Until Time 2
    24:00,                   !- Time 3 {hh:mm}
    1;                       !- Value Until Time 3

Schedule:Day:Interval,
    Ch2_occ_wkd,             !- Name
    Any Number,              !- Schedule Type Limits Name
    No,                      !- Interpolate to Timestep
    09:00,                   !- Time 1 {hh:mm}
    1,                       !- Value Until Time 1
    23:00,                   !- Time 2 {hh:mm}
    0,                       !- Value Until Time 2
    24:00,                   !- Time 3 {hh:mm}
    1;                       !- Value Until Time 3

Schedule:Day:Interval,
    RDC_Eclairage_sejour_Sem,!- Name
    Any Number,              !- Schedule Type Limits Name
    No,                      !- Interpolate to Timestep
    18:00,                   !- Time 1 {hh:mm}
    0,                       !- Value Until Time 1
    20:00,                   !- Time 2 {hh:mm}
    1,                       !- Value Until Time 2
    21:00,                   !- Time 3 {hh:mm}
    0,                       !- Value Until Time 3
    23:00,                   !- Time 4 {hh:mm}
    1,                       !- Value Until Time 4
    24:00,                   !- Time 5 {hh:mm}
    0;                       !- Value Until Time 5

Schedule:Day:Interval,
    RDC_Eclairage_cuisine_wkd,  !- Name
    Any Number,              !- Schedule Type Limits Name
    No,                      !- Interpolate to Timestep
    9:00,                    !- Time 1 {hh:mm}
    0,                       !- Value Until Time 1
    10:00,                   !- Time 2 {hh:mm}
    1,                       !- Value Until Time 2
    20:00,                   !- Time 3 {hh:mm}
    0,                       !- Value Until Time 3
    21:00,                   !- Time 4 {hh:mm}
    1,                       !- Value Until Time 4
    24:00,                   !- Time 5 {hh:mm}
    0;                       !- Value Until Time 5

Schedule:Day:Interval,
    RDC_Eclairage_sejour_wkd,!- Name
    Any Number,              !- Schedule Type Limits Name
    No,                      !- Interpolate to Timestep
    18:00,                   !- Time 1 {hh:mm}
    0,                       !- Value Until Time 1
    20:00,                   !- Time 2 {hh:mm}
    1,                       !- Value Until Time 2
    21:00,                   !- Time 3 {hh:mm}
    0,                       !- Value Until Time 3
    23:00,                   !- Time 4 {hh:mm}
    1,                       !- Value Until Time 4
    24:00,                   !- Time 5 {hh:mm}
    0;                       !- Value Until Time 5

Schedule:Day:Interval,
    chauff_On,               !- Name
    Any Number,              !- Schedule Type Limits Name
    No,                      !- Interpolate to Timestep
    24:00,                   !- Time 1 {hh:mm}
    1;                       !- Value Until Time 1

Schedule:Day:Interval,
    chauff_Off,              !- Name
    Any Number,              !- Schedule Type Limits Name
    No,                      !- Interpolate to Timestep
    24:00,                   !- Time 1 {hh:mm}
    0;                       !- Value Until Time 1


!-   ===========  ALL OBJECTS IN CLASS: SCHEDULE:WEEK:COMPACT ===========

Schedule:Week:Compact,
    RDC_Occupants,           !- Name
    Weekdays,                !- DayType List 1
    RDC_occ_sem,             !- Schedule:Day Name 1
    Weekends,                !- DayType List 2
    RDC_occ_wkd,             !- Schedule:Day Name 2
    AllOtherDays,            !- DayType List 3
    RDC_occ_wkd;             !- Schedule:Day Name 3

Schedule:Week:Compact,
    Volets_RDC,              !- Name
    Weekdays,                !- DayType List 1
    Volets_RDC_sem,          !- Schedule:Day Name 1
    Weekends,                !- DayType List 2
    Volets_RDC_we,           !- Schedule:Day Name 2
    AllOtherDays,            !- DayType List 3
    Volets_RDC_we;           !- Schedule:Day Name 3

Schedule:Week:Compact,
    RDC_Eclairage_cuisine,   !- Name
    Weekdays,                !- DayType List 1
    RDC_Eclairage_cuisine_Sem,  !- Schedule:Day Name 1
    Weekends,                !- DayType List 2
    RDC_Eclairage_cuisine_wkd,  !- Schedule:Day Name 2
    AllOtherDays,            !- DayType List 3
    RDC_Eclairage_cuisine_wkd;  !- Schedule:Day Name 3

Schedule:Week:Compact,
    RDC_Equipement,          !- Name
    Weekdays,                !- DayType List 1
    RDC_equipt_sem,          !- Schedule:Day Name 1
    Weekends,                !- DayType List 2
    RDC_equipt_wkd,          !- Schedule:Day Name 2
    AllOtherDays,            !- DayType List 3
    RDC_equipt_wkd;          !- Schedule:Day Name 3

Schedule:Week:Compact,
    Sdb_Eclairage,           !- Name
    Weekdays,                !- DayType List 1
    Sdb_Eclairage_Sem,       !- Schedule:Day Name 1
    Weekends,                !- DayType List 2
    Sdb_Eclairage_wkd,       !- Schedule:Day Name 2
    AllOtherDays,            !- DayType List 3
    Sdb_Eclairage_wkd;       !- Schedule:Day Name 3

Schedule:Week:Compact,
    Sdb_Equipement,          !- Name
    Weekdays,                !- DayType List 1
    Sdb_Equipement_Sem_wkd,  !- Schedule:Day Name 1
    Weekends,                !- DayType List 2
    Sdb_Equipement_Sem_wkd,  !- Schedule:Day Name 2
    AllOtherDays,            !- DayType List 3
    Sdb_Equipement_Sem_wkd;  !- Schedule:Day Name 3

Schedule:Week:Compact,
    Ch1_Eclairage,           !- Name
    Weekdays,                !- DayType List 1
    Ch1_Eclairage_Sem,       !- Schedule:Day Name 1
    Weekends,                !- DayType List 2
    Ch1_Eclairage_wkd,       !- Schedule:Day Name 2
    AllOtherDays,            !- DayType List 3
    Ch1_Eclairage_wkd;       !- Schedule:Day Name 3

Schedule:Week:Compact,
    Volets_R,                !- Name
    Weekdays,                !- DayType List 1
    VoletR_sem_hiver,        !- Schedule:Day Name 1
    Weekends,                !- DayType List 2
    VoletR_wkd_hiver,        !- Schedule:Day Name 2
    AllOtherDays,            !- DayType List 3
    VoletR_wkd_hiver;        !- Schedule:Day Name 3

Schedule:Week:Compact,
    Ch1_Occupants,           !- Name
    Weekdays,                !- DayType List 1
    Ch1_occ_sem,             !- Schedule:Day Name 1
    Weekends,                !- DayType List 2
    Ch1_occ_wkd,             !- Schedule:Day Name 2
    AllOtherDays,            !- DayType List 3
    Ch1_occ_wkd;             !- Schedule:Day Name 3

Schedule:Week:Compact,
    Sdb_Occupants,           !- Name
    Weekdays,                !- DayType List 1
    Sdb_occ_sem,             !- Schedule:Day Name 1
    Weekends,                !- DayType List 2
    Sdb_occ_wkd,             !- Schedule:Day Name 2
    AllOtherDays,            !- DayType List 3
    Sdb_occ_wkd;             !- Schedule:Day Name 3

Schedule:Week:Compact,
    Ch1_Chauffage,           !- Name
    Weekdays,                !- DayType List 1
    Ch1_chauffage_sem,       !- Schedule:Day Name 1
    Weekends,                !- DayType List 2
    Ch1_chauffage_wkd,       !- Schedule:Day Name 2
    AllOtherDays,            !- DayType List 3
    Ch1_chauffage_wkd;       !- Schedule:Day Name 3

Schedule:Week:Compact,
    RDC_Chauffage,           !- Name
    Weekdays,                !- DayType List 1
    RDC_Chauff_sem,          !- Schedule:Day Name 1
    Weekends,                !- DayType List 2
    RDC_Chauff_wkd,          !- Schedule:Day Name 2
    AllOtherDays,            !- DayType List 3
    RDC_Chauff_wkd;          !- Schedule:Day Name 3

Schedule:Week:Compact,
    Sdb_Chauffage,           !- Name
    Weekdays,                !- DayType List 1
    Sdb_Chauff_sem,          !- Schedule:Day Name 1
    Weekends,                !- DayType List 2
    Sdb_Chauff_wkd,          !- Schedule:Day Name 2
    AllOtherDays,            !- DayType List 3
    Sdb_Chauff_wkd;          !- Schedule:Day Name 3

Schedule:Week:Compact,
    Ch2_Occupants,           !- Name
    Weekdays,                !- DayType List 1
    Ch2_occ_sem,             !- Schedule:Day Name 1