!-Generator IDFEditor 1.51
!-Option SortedOrder

!-NOTE: All comments with '!-' are ignored by the IDFEditor and are generated automatically.
!-      Use '!' comments if they need to be retained when using the IDFEditor.


!-   ===========  ALL OBJECTS IN CLASS: VERSION ===========

Version,
    9.5;                     !- Version Identifier


!-   ===========  ALL OBJECTS IN CLASS: SIMULATIONCONTROL ===========

SimulationControl,
    No,                      !- Do Zone Sizing Calculation
    No,                      !- Do System Sizing Calculation
    No,                      !- Do Plant Sizing Calculation
    No,                      !- Run Simulation for Sizing Periods
    Yes,                     !- Run Simulation for Weather File Run Periods
    No,                      !- Do HVAC Sizing Simulation for Sizing Periods
    1;                       !- Maximum Number of HVAC Sizing Simulation Passes


!-   ===========  ALL OBJECTS IN CLASS: BUILDING ===========

Building,
    IDM,                     !- Name
    -15,                     !- North Axis {deg}
    Suburbs,                 !- Terrain
    0.01,                    !- Loads Convergence Tolerance Value {W}
    0.4,                     !- Temperature Convergence Tolerance Value {deltaC}
    FullInteriorAndExterior, !- Solar Distribution
    150,                     !- Maximum Number of Warmup Days
    6;                       !- Minimum Number of Warmup Days


!-   ===========  ALL OBJECTS IN CLASS: TIMESTEP ===========

Timestep,
    12;                      !- Number of Timesteps per Hour


!-   ===========  ALL OBJECTS IN CLASS: SITE:LOCATION ===========

Site:Location,
    Bourget_du_Lac,          !- Name
    45.65,                   !- Latitude {deg}
    5.88,                    !- Longitude {deg}
    1,                       !- Time Zone {hr}
    239;                     !- Elevation {m}


!-   ===========  ALL OBJECTS IN CLASS: RUNPERIOD ===========

RunPeriod,
    Annee,                   !- Name
    1,                       !- Begin Month
    1,                       !- Begin Day of Month
    2009,                    !- Begin Year
    12,                      !- End Month
    31,                      !- End Day of Month
    2009,                    !- End Year
    Thursday,                !- Day of Week for Start Day
    No,                      !- Use Weather File Holidays and Special Days
    No,                      !- Use Weather File Daylight Saving Period
    No,                      !- Apply Weekend Holiday Rule
    Yes,                     !- Use Weather File Rain Indicators
    Yes;                     !- Use Weather File Snow Indicators


!-   ===========  ALL OBJECTS IN CLASS: SCHEDULETYPELIMITS ===========

ScheduleTypeLimits,
    Fractional,              !- Name
    0,                       !- Lower Limit Value
    1,                       !- Upper Limit Value
    Continuous;              !- Numeric Type

ScheduleTypeLimits,
    ActivityLevel,           !- Name
    0,                       !- Lower Limit Value
    ,                        !- Upper Limit Value
    Continuous,              !- Numeric Type
    activitylevel;           !- Unit Type

ScheduleTypeLimits,
    Dimensionless,           !- Name
    ,                        !- Lower Limit Value
    ,                        !- Upper Limit Value
    Continuous;              !- Numeric Type

ScheduleTypeLimits,
    OnOff,                   !- Name
    0,                       !- Lower Limit Value
    1,                       !- Upper Limit Value
    Discrete,                !- Numeric Type
    availability;            !- Unit Type

ScheduleTypeLimits,
    Schedule Type Limits 1;  !- Name

ScheduleTypeLimits,
    Schedule Type Limits 10; !- Name

ScheduleTypeLimits,
    Schedule Type Limits 11; !- Name

ScheduleTypeLimits,
    Schedule Type Limits 12; !- Name

ScheduleTypeLimits,
    Schedule Type Limits 13; !- Name

ScheduleTypeLimits,
    Schedule Type Limits 14; !- Name

ScheduleTypeLimits,
    Schedule Type Limits 15; !- Name

ScheduleTypeLimits,
    Schedule Type Limits 16; !- Name

ScheduleTypeLimits,
    Schedule Type Limits 17; !- Name

ScheduleTypeLimits,
    Schedule Type Limits 18; !- Name

ScheduleTypeLimits,
    Schedule Type Limits 19; !- Name

ScheduleTypeLimits,
    Schedule Type Limits 2;  !- Name

ScheduleTypeLimits,
    Schedule Type Limits 20; !- Name

ScheduleTypeLimits,
    Schedule Type Limits 21; !- Name

ScheduleTypeLimits,
    Schedule Type Limits 22; !- Name

ScheduleTypeLimits,
    Schedule Type Limits 23; !- Name

ScheduleTypeLimits,
    Schedule Type Limits 24; !- Name

ScheduleTypeLimits,
    Schedule Type Limits 25; !- Name

ScheduleTypeLimits,
    Schedule Type Limits 26; !- Name

ScheduleTypeLimits,
    Schedule Type Limits 27; !- Name

ScheduleTypeLimits,
    Schedule Type Limits 28; !- Name

ScheduleTypeLimits,
    Schedule Type Limits 29; !- Name

ScheduleTypeLimits,
    Schedule Type Limits 3;  !- Name

ScheduleTypeLimits,
    Schedule Type Limits 30; !- Name

ScheduleTypeLimits,
    Schedule Type Limits 31; !- Name

ScheduleTypeLimits,
    Schedule Type Limits 32; !- Name

ScheduleTypeLimits,
    Schedule Type Limits 33; !- Name

ScheduleTypeLimits,
    Schedule Type Limits 34; !- Name

ScheduleTypeLimits,
    Schedule Type Limits 35; !- Name

ScheduleTypeLimits,
    Schedule Type Limits 36; !- Name

ScheduleTypeLimits,
    Schedule Type Limits 37; !- Name

ScheduleTypeLimits,
    Schedule Type Limits 38; !- Name

ScheduleTypeLimits,
    Schedule Type Limits 39; !- Name

ScheduleTypeLimits,
    Schedule Type Limits 4;  !- Name

ScheduleTypeLimits,
    Schedule Type Limits 40; !- Name

ScheduleTypeLimits,
    Schedule Type Limits 41; !- Name

ScheduleTypeLimits,
    Schedule Type Limits 42; !- Name

ScheduleTypeLimits,
    Schedule Type Limits 43; !- Name

ScheduleTypeLimits,
    Schedule Type Limits 44; !- Name

ScheduleTypeLimits,
    Schedule Type Limits 45; !- Name

ScheduleTypeLimits,
    Schedule Type Limits 46; !- Name

ScheduleTypeLimits,
    Schedule Type Limits 47; !- Name

ScheduleTypeLimits,
    Schedule Type Limits 48; !- Name

ScheduleTypeLimits,
    Schedule Type Limits 49; !- Name

ScheduleTypeLimits,
    Schedule Type Limits 5;  !- Name

ScheduleTypeLimits,
    Schedule Type Limits 50; !- Name

ScheduleTypeLimits,
    Schedule Type Limits 51; !- Name

ScheduleTypeLimits,
    Schedule Type Limits 52; !- Name

ScheduleTypeLimits,
    Schedule Type Limits 53; !- Name

ScheduleTypeLimits,
    Schedule Type Limits 54; !- Name

ScheduleTypeLimits,
    Schedule Type Limits 55; !- Name

ScheduleTypeLimits,
    Schedule Type Limits 56; !- Name

ScheduleTypeLimits,
    Schedule Type Limits 57; !- Name

ScheduleTypeLimits,
    Schedule Type Limits 58; !- Name

ScheduleTypeLimits,
    Schedule Type Limits 59; !- Name

ScheduleTypeLimits,
    Schedule Type Limits 6;  !- Name

ScheduleTypeLimits,
    Schedule Type Limits 7;  !- Name

ScheduleTypeLimits,
    Schedule Type Limits 8;  !- Name

ScheduleTypeLimits,
    Schedule Type Limits 9;  !- Name


!-   ===========  ALL OBJECTS IN CLASS: SCHEDULE:DAY:INTERVAL ===========

Schedule:Day:Interval,
    Ch1_chauffage_Sem,       !- Name
    ,                        !- Schedule Type Limits Name
    No,                      !- Interpolate to Timestep
    06:00,                   !- Time 1 {hh:mm}
    18,                      !- Value Until Time 1
    07:00,                   !- Time 2 {hh:mm}
    21,                      !- Value Until Time 2
    22:00,                   !- Time 3 {hh:mm}
    15,                      !- Value Until Time 3
    23:00,                   !- Time 4 {hh:mm}
    21,                      !- Value Until Time 4
    24:00,                   !- Time 5 {hh:mm}
    18;                      !- Value Until Time 5

Schedule:Day:Interval,
    Ch1_chauffage_wkd,       !- Name
    ,                        !- Schedule Type Limits Name
    No,                      !- Interpolate to Timestep
    08:00,                   !- Time 1 {hh:mm}
    18,                      !- Value Until Time 1
    09:00,                   !- Time 2 {hh:mm}
    21,                      !- Value Until Time 2
    23:00,                   !- Time 3 {hh:mm}
    15,                      !- Value Until Time 3
    24:00,                   !- Time 4 {hh:mm}
    21;                      !- Value Until Time 4

Schedule:Day:Interval,
    Ch1_Eclairage_Sem,       !- Name
    ,                        !- Schedule Type Limits Name
    No,                      !- Interpolate to Timestep
    06:00,                   !- Time 1 {hh:mm}
    0,                       !- Value Until Time 1
    07:00,                   !- Time 2 {hh:mm}
    1,                       !- Value Until Time 2
    22:00,                   !- Time 3 {hh:mm}
    0,                       !- Value Until Time 3
    23:00,                   !- Time 4 {hh:mm}
    1,                       !- Value Until Time 4
    24:00,                   !- Time 5 {hh:mm}
    0;                       !- Value Until Time 5

Schedule:Day:Interval,
    Ch1_Eclairage_wkd,       !- Name
    ,                        !- Schedule Type Limits Name
    No,                      !- Interpolate to Timestep
    22:00,                   !- Time 1 {hh:mm}
    0,                       !- Value Until Time 1
    23:00,                   !- Time 2 {hh:mm}
    1,                       !- Value Until Time 2
    24:00,                   !- Time 3 {hh:mm}
    0;                       !- Value Until Time 3

Schedule:Day:Interval,
    Ch1_occ_sem,             !- Name
    ,                        !- Schedule Type Limits Name
    No,                      !- Interpolate to Timestep
    07:00,                   !- Time 1 {hh:mm}
    2,                       !- Value Until Time 1
    23:00,                   !- Time 2 {hh:mm}
    0,                       !- Value Until Time 2
    24:00,                   !- Time 3 {hh:mm}
    2;                       !- Value Until Time 3

Schedule:Day:Interval,
    Ch1_occ_wkd,             !- Name
    ,                        !- Schedule Type Limits Name
    No,                      !- Interpolate to Timestep
    09:00,                   !- Time 1 {hh:mm}
    2,                       !- Value Until Time 1
    23:00,                   !- Time 2 {hh:mm}
    0,                       !- Value Until Time 2
    24:00,                   !- Time 3 {hh:mm}
    2;                       !- Value Until Time 3

Schedule:Day:Interval,
    Ch2_occ_sem,             !- Name
    ,                        !- Schedule Type Limits Name
    No,                      !- Interpolate to Timestep
    07:00,                   !- Time 1 {hh:mm}
    1,                       !- Value Until Time 1
    23:00,                   !- Time 2 {hh:mm}
    0,                       !- Value Until Time 2
    24:00,                   !- Time 3 {hh:mm}
    1;                       !- Value Until Time 3

Schedule:Day:Interval,
    Ch2_occ_wkd,             !- Name
    ,                        !- Schedule Type Limits Name
    No,                      !- Interpolate to Timestep
    09:00,                   !- Time 1 {hh:mm}
    1,                       !- Value Until Time 1
    23:00,                   !- Time 2 {hh:mm}
    0,                       !- Value Until Time 2
    24:00,                   !- Time 3 {hh:mm}
    1;                       !- Value Until Time 3

Schedule:Day:Interval,
    chauff_Off,              !- Name
    ,                        !- Schedule Type Limits Name
    No,                      !- Interpolate to Timestep
    24:00,                   !- Time 1 {hh:mm}
    0;                       !- Value Until Time 1

Schedule:Day:Interval,
    chauff_On,               !- Name
    ,                        !- Schedule Type Limits Name
    No,                      !- Interpolate to Timestep
    24:00,                   !- Time 1 {hh:mm}
    1;                       !- Value Until Time 1

Schedule:Day:Interval,
    RDC_chauff_sem,          !- Name
    ,                        !- Schedule Type Limits Name
    No,                      !- Interpolate to Timestep
    07:00,                   !- Time 1 {hh:mm}
    15,                      !- Value Until Time 1
    08:00,                   !- Time 2 {hh:mm}
    19,                      !- Value Until Time 2
    13:00,                   !- Time 3 {hh:mm}
    15,                      !- Value Until Time 3
    14:00,                   !- Time 4 {hh:mm}
    19,                      !- Value Until Time 4
    18:00,                   !- Time 5 {hh:mm}
    15,                      !- Value Until Time 5
    19:00,                   !- Time 6 {hh:mm}
    19,                      !- Value Until Time 6
    23:00,                   !- Time 7 {hh:mm}
    19,                      !- Value Until Time 7
    24:00,                   !- Time 8 {hh:mm}
    15;                      !- Value Until Time 8

Schedule:Day:Interval,
    RDC_Chauff_wkd,          !- Name
    ,                        !- Schedule Type Limits Name
    No,                      !- Interpolate to Timestep
    09:00,                   !- Time 1 {hh:mm}
    15,                      !- Value Until Time 1
    10:00,                   !- Time 2 {hh:mm}
    19,                      !- Value Until Time 2
    13:00,                   !- Time 3 {hh:mm}
    19,                      !- Value Until Time 3
    14:00,                   !- Time 4 {hh:mm}
    19,                      !- Value Until Time 4
    18:00,                   !- Time 5 {hh:mm}
    19,                      !- Value Until Time 5
    23:00,                   !- Time 6 {hh:mm}
    19,                      !- Value Until Time 6
    24:00,                   !- Time 7 {hh:mm}
    15;                      !- Value Until Time 7

Schedule:Day:Interval,
    RDC_Eclairage_cuisine_Sem,  !- Name
    ,                        !- Schedule Type Limits Name
    No,                      !- Interpolate to Timestep
    07:00,                   !- Time 1 {hh:mm}
    0,                       !- Value Until Time 1
    08:00,                   !- Time 2 {hh:mm}
    1,                       !- Value Until Time 2
    20:00,                   !- Time 3 {hh:mm}
    0,                       !- Value Until Time 3
    21:00,                   !- Time 4 {hh:mm}
    1,                       !- Value Until Time 4
    24:00,                   !- Time 5 {hh:mm}
    0;                       !- Value Until Time 5

Schedule:Day:Interval,
    RDC_Eclairage_cuisine_wkd,  !- Name
    ,                        !- Schedule Type Limits Name
    No,                      !- Interpolate to Timestep
    09:00,                   !- Time 1 {hh:mm}
    0,                       !- Value Until Time 1
    10:00,                   !- Time 2 {hh:mm}
    1,                       !- Value Until Time 2
    20:00,                   !- Time 3 {hh:mm}
    0,                       !- Value Until Time 3
    21:00,                   !- Time 4 {hh:mm}
    1,                       !- Value Until Time 4
    24:00,                   !- Time 5 {hh:mm}
    0;                       !- Value Until Time 5

Schedule:Day:Interval,
    RDC_Eclairage_sejour_Sem,!- Name
    ,                        !- Schedule Type Limits Name
    No,                      !- Interpolate to Timestep
    18:00,                   !- Time 1 {hh:mm}
    0,                       !- Value Until Time 1
    20:00,                   !- Time 2 {hh:mm}
    1,                       !- Value Until Time 2
    21:00,                   !- Time 3 {hh:mm}
    0,                       !- Value Until Time 3
    23:00,                   !- Time 4 {hh:mm}
    1,                       !- Value Until Time 4
    24:00,                   !- Time 5 {hh:mm}
    0;                       !- Value Until Time 5

Schedule:Day:Interval,
    RDC_Eclairage_sejour_wkd,!- Name
    ,                        !- Schedule Type Limits Name
    No,                      !- Interpolate to Timestep
    18:00,                   !- Time 1 {hh:mm}
    0,                       !- Value Until Time 1
    20:00,                   !- Time 2 {hh:mm}
    1,                       !- Value Until Time 2
    21:00,                   !- Time 3 {hh:mm}
    0,                       !- Value Until Time 3
    23:00,                   !- Time 4 {hh:mm}
    1,                       !- Value Until Time 4
    24:00,                   !- Time 5 {hh:mm}
    0;                       !- Value Until Time 5

Schedule:Day:Interval,
    RDC_equipt_sem,          !- Name
    ,                        !- Schedule Type Limits Name
    No,                      !- Interpolate to Timestep
    07:00,                   !- Time 1 {hh:mm}
    50,                      !- Value Until Time 1
    08:00,                   !- Time 2 {hh:mm}
    550,                     !- Value Until Time 2
    13:00,                   !- Time 3 {hh:mm}
    50,                      !- Value Until Time 3
    14:00,                   !- Time 4 {hh:mm}
    1050,                    !- Value Until Time 4
    18:00,                   !- Time 5 {hh:mm}
    50,                      !- Value Until Time 5
    20:00,                   !- Time 6 {hh:mm}
    150,                     !- Value Until Time 6
    21:00,                   !- Time 7 {hh:mm}
    1050,                    !- Value Until Time 7
    22:00,                   !- Time 8 {hh:mm}
    400,                     !- Value Until Time 8
    23:00,                   !- Time 9 {hh:mm}
    150,                     !- Value Until Time 9
    24:00,                   !- Time 10 {hh:mm}
    50;                      !- Value Until Time 10

Schedule:Day:Interval,
    RDC_equipt_wkd,          !- Name
    ,                        !- Schedule Type Limits Name
    No,                      !- Interpolate to Timestep
    09:00,                   !- Time 1 {hh:mm}
    50,                      !- Value Until Time 1
    10:00,                   !- Time 2 {hh:mm}
    550,                     !- Value Until Time 2
    13:00,                   !- Time 3 {hh:mm}
    150,                     !- Value Until Time 3
    14:00,                   !- Time 4 {hh:mm}
    1050,                    !- Value Until Time 4
    18:00,                   !- Time 5 {hh:mm}
    150,                     !- Value Until Time 5
    20:00,                   !- Time 6 {hh:mm}
    150,                     !- Value Until Time 6
    21:00,                   !- Time 7 {hh:mm}
    1050,                    !- Value Until Time 7
    22:00,                   !- Time 8 {hh:mm}
    400,                     !- Value Until Time 8
    23:00,                   !- Time 9 {hh:mm}
    150,                     !- Value Until Time 9
    24:00,                   !- Time 10 {hh:mm}
    50;                      !- Value Until Time 10

Schedule:Day:Interval,
    RDC_occ_sem,             !- Name
    ,                        !- Schedule Type Limits Name
    No,                      !- Interpolate to Timestep
    07:00,                   !- Time 1 {hh:mm}
    0,                       !- Value Until Time 1
    08:00,                   !- Time 2 {hh:mm}
    3,                       !- Value Until Time 2
    13:00,                   !- Time 3 {hh:mm}
    0,                       !- Value Until Time 3
    14:00,                   !- Time 4 {hh:mm}
    2,                       !- Value Until Time 4
    18:00,                   !- Time 5 {hh:mm}
    0,                       !- Value Until Time 5
    19:00,                   !- Time 6 {hh:mm}
    2,                       !- Value Until Time 6
    23:00,                   !- Time 7 {hh:mm}
    4,                       !- Value Until Time 7
    24:00,                   !- Time 8 {hh:mm}
    0;                       !- Value Until Time 8

Schedule:Day:Interval,
    RDC_occ_wkd,             !- Name
    ,                        !- Schedule Type Limits Name
    No,                      !- Interpolate to Timestep
    09:00,                   !- Time 1 {hh:mm}
    0,                       !- Value Until Time 1
    10:00,                   !- Time 2 {hh:mm}
    3,                       !- Value Until Time 2
    13:00,                   !- Time 3 {hh:mm}
    2,                       !- Value Until Time 3
    14:00,                   !- Time 4 {hh:mm}
    4,                       !- Value Until Time 4
    18:00,                   !- Time 5 {hh:mm}
    2,                       !- Value Until Time 5
    23:00,                   !- Time 6 {hh:mm}
    4,                       !- Value Until Time 6
    24:00,                   !- Time 7 {hh:mm}
    0;                       !- Value Until Time 7

Schedule:Day:Interval,
    Sdb_Chauff_sem,          !- Name
    ,                        !- Schedule Type Limits Name
    No,                      !- Interpolate to Timestep
    07:00,                   !- Time 1 {hh:mm}
    15,                      !- Value Until Time 1
    08:00,                   !- Time 2 {hh:mm}
    19,                      !- Value Until Time 2
    24:00,                   !- Time 3 {hh:mm}
    15;                      !- Value Until Time 3

Schedule:Day:Interval,
    Sdb_Chauff_wkd,          !- Name
    ,                        !- Schedule Type Limits Name
    No,                      !- Interpolate to Timestep
    09:00,                   !- Time 1 {hh:mm}
    15,                      !- Value Until Time 1
    10:00,                   !- Time 2 {hh:mm}
    19,                      !- Value Until Time 2
    24:00,                   !- Time 3 {hh:mm}
    15;                      !- Value Until Time 3

Schedule:Day:Interval,
    Sdb_Eclairage_Sem,       !- Name
    ,                        !- Schedule Type Limits Name
    No,                      !- Interpolate to Timestep
    07:00,                   !- Time 1 {hh:mm}
    0,                       !- Value Until Time 1
    08:00,                   !- Time 2 {hh:mm}
    1,                       !- Value Until Time 2
    24:00,                   !- Time 3 {hh:mm}
    0;                       !- Value Until Time 3

Schedule:Day:Interval,
    Sdb_Eclairage_wkd,       !- Name
    ,                        !- Schedule Type Limits Name
    No,                      !- Interpolate to Timestep
    09:00,                   !- Time 1 {hh:mm}
    0,                       !- Value Until Time 1
    10:00,                   !- Time 2 {hh:mm}
    1,                       !- Value Until Time 2
    24:00,                   !- Time 3 {hh:mm}
    0;                       !- Value Until Time 3

Schedule:Day:Interval,
    Sdb_Equipement_Sem_wkd,  !- Name
    ,                        !- Schedule Type Limits Name
    No,                      !- Interpolate to Timestep
    20:00,                   !- Time 1 {hh:mm}
    0,                       !- Value Until Time 1
    21:00,                   !- Time 2 {hh:mm}
    650,                     !- Value Until Time 2
    24:00,                   !- Time 3 {hh:mm}
    0;                       !- Value Until Time 3

Schedule:Day:Interval,
    Sdb_occ_sem,             !- Name
    ,                        !- Schedule Type Limits Name
    No,                      !- Interpolate to Timestep
    07:00,                   !- Time 1 {hh:mm}
    0,                       !- Value Until Time 1
    08:00,                   !- Time 2 {hh:mm}
    1,                       !- Value Until Time 2
    24:00,                   !- Time 3 {hh:mm}
    0;                       !- Value Until Time 3

Schedule:Day:Interval,
    Sdb_occ_wkd,             !- Name
    ,                        !- Schedule Type Limits Name
    No,                      !- Interpolate to Timestep
    09:00,                   !- Time 1 {hh:mm}
    0,                       !- Value Until Time 1
    10:00,                   !- Time 2 {hh:mm}
    1,                       !- Value Until Time 2
    24:00,                   !- Time 3 {hh:mm}
    0;                       !- Value Until Time 3

Schedule:Day:Interval,
    VoletR_sem_hiver,        !- Name
    ,                        !- Schedule Type Limits Name
    No,                      !- Interpolate to Timestep
    07:00,                   !- Time 1 {hh:mm}
    1,                       !- Value Until Time 1
    21:00,                   !- Time 2 {hh:mm}
    0,                       !- Value Until Time 2
    24:00,                   !- Time 3 {hh:mm}
    1;                       !- Value Until Time 3

Schedule:Day:Interval,
    VoletR_wkd_hiver,        !- Name
    ,                        !- Schedule Type Limits Name
    No,                      !- Interpolate to Timestep
    09:00,                   !- Time 1 {hh:mm}
    1,                       !- Value Until Time 1
    21:00,                   !- Time 2 {hh:mm}
    0,                       !- Value Until Time 2
    24:00,                   !- Time 3 {hh:mm}
    1;                       !- Value Until Time 3

Schedule:Day:Interval,
    Volets_RDC_sem,          !- Name
    ,                        !- Schedule Type Limits Name
    No,                      !- Interpolate to Timestep
    08:00,                   !- Time 1 {hh:mm}
    1,                       !- Value Until Time 1
    09:00,                   !- Time 2 {hh:mm}
    0,                       !- Value Until Time 2
    13:00,                   !- Time 3 {hh:mm}
    1,                       !- Value Until Time 3
    14:00,                   !- Time 4 {hh:mm}
    0,                       !- Value Until Time 4
    17:00,                   !- Time 5 {hh:mm}
    1,                       !- Value Until Time 5
    22:00,                   !- Time 6 {hh:mm}
    0,                       !- Value Until Time 6
    24:00,                   !- Time 7 {hh:mm}
    1;                       !- Value Until Time 7

Schedule:Day:Interval,
    Volets_RDC_we,           !- Name
    ,                        !- Schedule Type Limits Name
    No,                      !- Interpolate to Timestep
    08:00,                   !- Time 1 {hh:mm}
    1,                       !- Value Until Time 1
    14:00,                   !- Time 2 {hh:mm}
    0,                       !- Value Until Time 2
    17:00,                   !- Time 3 {hh:mm}
    1,                       !- Value Until Time 3
    22:00,                   !- Time 4 {hh:mm}
    0,                       !- Value Until Time 4
    24:00,                   !- Time 5 {hh:mm}
    1;                       !- Value Until Time 5


!-   ===========  ALL OBJECTS IN CLASS: SCHEDULE:YEAR ===========

Schedule:Year,
    RDC_Eclairage_cuisine,   !- Name
    Fractional,              !- Schedule Type Limits Name
    ,                        !- Schedule:Week Name 1
    ,                        !- Start Month 1
    ,                        !- Start Day 1
    ,                        !- End Month 1
    ;                        !- End Day 1

Schedule:Year,
    RDC_Eclairage_sejour,    !- Name
    Fractional,              !- Schedule Type Limits Name
    ,                        !- Schedule:Week Name 1
    ,                        !- Start Month 1
    ,                        !- Start Day 1
    ,                        !- End Month 1
    ;                        !- End Day 1

Schedule:Year,
    Ch1_Eclairage,           !- Name
    Fractional,              !- Schedule Type Limits Name
    ,                        !- Schedule:Week Name 1
    ,                        !- Start Month 1
    ,                        !- Start Day 1
    ,                        !- End Month 1
    ;                        !- End Day 1

Schedule:Year,
    Sdb_Eclairage,           !- Name
    Fractional,              !- Schedule Type Limits Name
    ,                        !- Schedule:Week Name 1
    ,                        !- Start Month 1
    ,                        !- Start Day 1
    ,                        !- End Month 1
    ;                        !- End Day 1

Schedule:Year,
    Ch1_Chauffage,           !- Name
    ,                        !- Schedule Type Limits Name
    ,                        !- Schedule:Week Name 1
    ,                        !- Start Month 1
    ,                        !- Start Day 1
    ,                        !- End Month 1
    ;                        !- End Day 1

Schedule:Year,
    Ch1_Occupants,           !- Name
    Fractional,              !- Schedule Type Limits Name
    ,                        !- Schedule:Week Name 1
    ,                        !- Start Month 1
    ,                        !- Start Day 1
    ,                        !- End Month 1
    ;                        !- End Day 1

Schedule:Year,
    Ch2_Occupants,           !- Name
    Fractional,              !- Schedule Type Limits Name
    ,                        !- Schedule:Week Name 1
    ,                        !- Start Month 1
    ,                        !- Start Day 1
    ,                        !- End Month 1
    ;                        !- End Day 1

Schedule:Year,
    RDC_Chauffage,           !- Name
    ,                        !- Schedule Type Limits Name
    ,                        !- Schedule:Week Name 1
    ,                        !- Start Month 1
    ,                        !- Start Day 1
    ,                        !- End Month 1
    ;                        !- End Day 1

Schedule:Year,
    RDC_Equipement,          !- Name
    Dimensionless,           !- Schedule Type Limits Name
    ,                        !- Schedule:Week Name 1
    ,                        !- Start Month 1
    ,                        !- Start Day 1
    ,                        !- End Month 1
    ;                        !- End Day 1

Schedule:Year,
    RDC_Occupants,           !- Name
    Fractional,              !- Schedule Type Limits Name
    ,                        !- Schedule:Week Name 1
    ,                        !- Start Month 1
    ,                        !- Start Day 1
    ,                        !- End Month 1
    ;                        !- End Day 1

Schedule:Year,
    saison_chauff,           !- Name
    ,                        !- Schedule Type Limits Name
    ,                        !- Schedule:Week Name 1
    ,                        !- Start Month 1